Circuit: *Generated netlist for the circuit diagram.

Error on line 3 : s1 1 2 posa 0 sw
	 Unable to find definition of model "sw"
WARNING: Specified period is not longer than the sum of Trise, Tfall, and Ton for v1.  Increasing period to 0.250002
WARNING: Less than two connections to node 4.  This node is used by R2.
Direct Newton iteration for .op point succeeded.
Heightened Def Con from 0.05 to 0.05

Date: Thu Nov 18 20:22:22 2021
Total elapsed time: 1.816 seconds.

tnom = 25
temp = 25
method = modified trap
totiter = 2267
traniter = 2245
tranpoints = 1114
accept = 1099
rejected = 16
matrix size = 8
fillins = 0
solver = Normal
Matrix Compiler1:      12 opcodes  0.1/[0.0]/0.1
Matrix Compiler2: off  [0.1]/0.1/0.1

